/*--------------------------------*- C++ -*----------------------------------*\
  =========                 |
  \\      /  F ield         | OpenFOAM: The Open Source CFD Toolbox
   \\    /   O peration     | Website:  https://openfoam.org
    \\  /    A nd           | Version:  7
     \\/     M anipulation  |
\*---------------------------------------------------------------------------*/
FoamFile
{
    version     2.0;
    format      ascii;
    class       dictionary;
    object      blockMeshDict;
}

// * * * * * * * * * * * * * * * * * * * * * * * * * * * * * * * * * * * * * //

convertToMeters 1;

vertices
(
    (-1 -4 -2)
    (10.095 -4 -2)
    (10.095 4 -2)
    (-1 4 -2)
    (-1 -4 30)
    (10.095 -4 30)
    (10.095 4 30)
    (-1 4 30)
);

blocks
(
    hex (0 1 2 3 4 5 6 7) (50 80 320) simpleGrading (1 1 3)
);

edges
(
);

boundary
(
    frontAndBack
    {
        type patch;
        faces
        (
            (0 4 5 1)
            (3 2 6 7)
        );
    }
    inlet
    {
        type patch;
        faces
        (
            (0 1 2 3)
        );
    }
    outlet
    {
        type patch;
        faces
        (
            (4 7 6 5)
        );
    }
    lowerWall
    {
        type wall;
        faces
        (
            (1 5 6 2)
        );
    }
    upperWall
    {
        type patch;
        faces
        (
            (0 3 7 4)
        );
    }
);

// ************************************************************************* //
