/*--------------------------------*- C++ -*----------------------------------*\
  =========                 |
  \\      /  F ield         | OpenFOAM: The Open Source CFD Toolbox
   \\    /   O peration     | Website:  https://openfoam.org
    \\  /    A nd           | Version:  7
     \\/     M anipulation  |
\*---------------------------------------------------------------------------*/
FoamFile
{
    version     2.0;
    format      ascii;
    class       dictionary;
    object      blockMeshDict;
}

// * * * * * * * * * * * * * * * * * * * * * * * * * * * * * * * * * * * * * //

convertToMeters 0.001;

vertices
(
    (-37.5 0 0)														//0
    (-37.5 90 0)													//1
    (-22.8 90 0)													//2
    (-20.8 96.5 0)													//3
    (-20.8 106.5 0)													//4
    (-33 130 0)														//5
    (-3 130 0)														//6
    (-3 100 0)														//7
    (-6 98 0)														//8
    (-12 97 0)														//9
    (-16.8 90 0)													//10
    
	//at 90 degrees

	(0 0 -37.5)														//11
	(0 90 -37.5)													//12
	(0 90 -22.8)													//13
	(0 96.5 -20.8)													//14
	(0 106.5 -20.8)													//15
	(0 130 -33)														//16
	(0 130 -3)														//17
	(0 100 -3)														//18
	(0 98 -6)														//19
	(0 97 -12)														//20
	(0 90 -16.8)													//21

	//at 180 degrees
	
	(37.5 0 0)														//22
	(37.5 90 0)														//23
	(22.8 90 0)														//24
	(20.8 96.5 0)													//25
	(20.8 106.5 0)													//26
	(33 130 0)														//27
	(3 130 0)														//28
	(3 100 0)														//29
	(6 98 0)														//30
	(12 97 0)														//31
	(16.8 90 0)														//32
	
	//at 270 degrees
	
	(0 0 37.5)														//33
	(0 90 37.5)														//34
	(0 90 22.8)														//35
	(0 96.5 20.8)													//36
	(0 106.5 20.8)													//37
	(0 130 33)														//38
	(0 130 3)														//39
	(0 100 3)														//40
	(0 98 6)														//41
	(0 97 12)														//42
	(0 90 16.8)														//43
	
	//for blocking
	
	(-22.8 0 0)														//44 at 0
	(-16.8 0 0)														//45 at 0
	(-12 106.5 0)													//46 at 0
	(-12 130 0)														//47 at 0
	(-3 106.5 0) 													//48 at 0
	
	(0 0 -22.8)														//49 at 90
	(0 0 -16.8)														//50 at 90
	(0 106.5 -12)													//51 at 90
	(0 130 -12)														//52 at 90
	(0 106.5 -3)													//53 at 90
	
	(22.8 0 0)														//54 at 180
	(16.8 0 0)														//55 at 180
	(12 106.5 0)													//56 at 180
	(12 130 0)														//57 at 180
	(3 106.5 0)														//58 at 180
	
	(0 0 22.8)														//59 at 270
	(0 0 16.8)														//60 at 270
	(0 106.5 12)													//61 at 270
	(0 130 12)														//62 at 270
	(0 106.5 3)														//63 at 270
	
	(-20.8 100 0)													//64
	(0 100 -20.8)													//65
	(20.8 100 0)													//66
	(0 100 20.8)													//67
	
	(-12 100 0)														//68
	(0 100 -12)														//69
	(12 100 0)														//70
	(0 100 12)														//71
	
	(-10 0 0)														//72
	(0 0 -10)														//73
	(10 0 0)														//74
	(0 0 10)														//75
	
	(-10 90 0)														//76
	(0 90 -10)														//77
	(10 90 0)														//78
	(0 90 10)														//79
	
);

blocks
(
    hex (44 49 11 0 2 13 12 1) 		(27 20 45) simpleGrading (1 1 1)		//0
    hex (49 54 22 11 13 24 23 12) 	(27 20 45) simpleGrading (1 1 1)		//1
    hex (54 59 33 22 24 35 34 23) 	(27 20 45) simpleGrading (1 1 1)		//2
    hex (59 44 0 33 35 2 1 34) 		(27 20 45) simpleGrading (1 1 1)		//3
    
    hex (45 50 49 44 10 21 13 2) 	(27 10 45) simpleGrading (1 1 1)		//4
    hex (50 55 54 49 21 32 24 13) 	(27 10 45) simpleGrading (1 1 1)		//5
    hex (55 60 59 54 32 43 35 24) 	(27 10 45) simpleGrading (1 1 1)		//6
    hex (60 45 44 59 43 10 2 35) 	(27 10 45) simpleGrading (1 1 1)		//7
    
    hex (10 21 13 2 9 20 14 3) 		(27 10 7) simpleGrading (1 1 1)		//8
    hex (21 32 24 13 20 31 25 14) 	(27 10 7) simpleGrading (1 1 1)		//9
    hex (32 43 35 24 31 42 36 25) 	(27 10 7) simpleGrading (1 1 1)		//10
    hex (43 10 2 35 42 9 3 36) 		(27 10 7) simpleGrading (1 1 1)		//11
    
    hex (9 20 14 3 68 69 65 64)		(27 10 3) simpleGrading (1 1 1)		//12
    hex (20 31 25 14 69 70 66 65) 	(27 10 3) simpleGrading (1 1 1)		//13
    hex (31 42 36 25 70 71 67 66) 	(27 10 3) simpleGrading (1 1 1)		//14
    hex (42 9 3 36 71 68 64 67) 	(27 10 3) simpleGrading (1 1 1)		//15
    
    hex (68 69 65 64 46 51 15 4) 	(27 10 7) simpleGrading (1 1 1)		//16
    hex (69 70 66 65 51 56 26 15) 	(27 10 7) simpleGrading (1 1 1)		//17
    hex (70 71 67 66 56 61 37 26) 	(27 10 7) simpleGrading (1 1 1)		//18
    hex (71 68 64 67 61 46 4 37) 	(27 10 7) simpleGrading (1 1 1)		//19
    
    hex (46 51 15 4 47 52 16 5) 	(27 10 24) simpleGrading (1 1 1)		//20
    hex (51 56 26 15 52 57 27 16) 	(27 10 24) simpleGrading (1 1 1)		//21
    hex (56 61 37 26 57 62 38 27) 	(27 10 24) simpleGrading (1 1 1)		//22
    hex (61 46 4 37 62 47 5 38) 	(27 10 24) simpleGrading (1 1 1)		//23
    
    hex (48 53 51 46 6 17 52 47) 	(27 10 24) simpleGrading (1 1 1)		//24
    hex (53 58 56 51 17 28 57 52) 	(27 10 24) simpleGrading (1 1 1)		//25
    hex (58 63 61 56 28 39 62 57) 	(27 10 24) simpleGrading (1 1 1)		//26
    hex (63 48 46 61 39 6 47 62) 	(27 10 24) simpleGrading (1 1 1)		//27
    
    hex (7 18 69 68 48 53 51 46) 	(27 10 7) simpleGrading (1 1 1)		//28
    hex (18 29 70 69 53 58 56 51) 	(27 10 7) simpleGrading (1 1 1)		//29
    hex (29 40 71 70 58 63 61 56) 	(27 10 7) simpleGrading (1 1 1)		//30
    hex (40 7 68 71 63 48 46 61) 	(27 10 7) simpleGrading (1 1 1)		//31
    
    hex (8 19 20 9 7 18 69 68) 		(27 10 3) simpleGrading (1 1 1)		//32
    hex (19 30 31 20 18 29 70 69) 	(27 10 3) simpleGrading (1 1 1)		//33
    hex (30 41 42 31 29 40 71 70) 	(27 10 3) simpleGrading (1 1 1)		//34
    hex (41 8 9 42 40 7 68 71) 		(27 10 3) simpleGrading (1 1 1)		//35
    
    hex (72 73 77 76 75 74 78 79) 	(27 45 27) simpleGrading (1 1 1)		//36
    hex (72 73 50 45 76 77 21 10) 	(27 15 45) simpleGrading (1 1 1)		//37
    hex (73 74 55 50 77 78 32 21) 	(27 15 45) simpleGrading (1 1 1)		//38
    hex (74 75 60 55 78 79 43 32) 	(27 15 45) simpleGrading (1 1 1)		//39
    hex (75 72 45 60 79 76 10 43) 	(27 15 45) simpleGrading (1 1 1)		//40
    
);

edges
(

	arc 0 11 (-26.516504294495533 0 -26.51650429449553)
	arc 11 22 (26.516504294495533 0 -26.51650429449553)
	arc 22 33 (26.516504294495533 0 26.51650429449553)
	arc 33 0 (-26.516504294495533 0 26.51650429449553)
	
	arc 1 12 (-26.516504294495533 90 -26.51650429449553)
	arc 12 23 (26.516504294495533 90 -26.51650429449553)
	arc 23 34 (26.516504294495533 90 26.51650429449553)
	arc 34 1 (-26.516504294495533 90 26.51650429449553)
	
	arc 2 13 (-16.122034611053284 90 -16.122034611053284)
	arc 13 24 (16.122034611053284 90 -16.122034611053284)
	arc 24 35 (16.122034611053284 90 16.122034611053284)
	arc 35 2 (-16.122034611053284 90 16.122034611053284)
	
	arc 3 14 (-14.707821048680188 96.5 -14.70782104868019)
	arc 14 25 (14.707821048680188 96.5 -14.70782104868019)
	arc 25 36 (14.707821048680188 96.5 14.70782104868019)
	arc 36 3 (-14.707821048680188 96.5 14.70782104868019)
	
	arc 4 15 (-14.707821048680188 106.5 -14.70782104868019)
	arc 15 26 (14.707821048680188 106.5 -14.70782104868019)
	arc 26 37 (14.707821048680188 106.5 14.70782104868019)
	arc 37 4 (-14.707821048680188 106.5 14.70782104868019)
	
	arc 5 16 (-23.334523779156065 130 -23.33452377915607)
	arc 16 27 (23.334523779156065 130 -23.33452377915607)
	arc 27 38 (23.334523779156065 130 23.33452377915607)
	arc 38 5 (-23.334523779156065 130 23.33452377915607)
	
	arc 6 17 (-2.1213203435596424 130 -2.121320343559643)
	arc 17 28 (2.1213203435596424 130 -2.121320343559643)
	arc 28 39 (2.1213203435596424 130 2.121320343559643)
	arc 39 6 (-2.1213203435596424 130 2.121320343559643)
	
	arc 7 18 (-2.1213203435596424 100 -2.121320343559643)
	arc 18 29 (2.1213203435596424 100 -2.121320343559643)
	arc 29 40 (2.1213203435596424 100 2.121320343559643)
	arc 40 7 (-2.1213203435596424 100 2.121320343559643)
	
	arc 8 19 (-4.242640687119286 98 -4.242640687119285)
	arc 19 30 (4.242640687119286 98 -4.242640687119285)
	arc 30 41 (4.242640687119286 98 4.242640687119285)
	arc 41 8 (-4.242640687119286 98 4.242640687119285)
	
	arc 9 20 (-8.485281374238571 97 -8.485281374238571)
	arc 20 31 (8.485281374238571 97 -8.485281374238571)
	arc 31 42 (8.485281374238571 97 8.485281374238571)
	arc 42 9 (-8.485281374238571 97 8.485281374238571)
	
	arc 10 21 (-11.879393923934 90 -11.879393923933998)
	arc 21 32 (11.879393923934 90 -11.879393923933998)
	arc 32 43 (11.879393923934 90 11.879393923933998)
	arc 43 10 (-11.879393923934 90 11.879393923933998)
	
	arc 44 49 (-16.122034611053284 0 -16.122034611053284)
	arc 49 54 (16.122034611053284 0 -16.122034611053284)
	arc 54 59 (16.122034611053284 0 16.122034611053284)
	arc 59 44 (-16.122034611053284 0 16.122034611053284)
	
	arc 45 50 (-11.879393923934 0 -11.879393923933998)
	arc 50 55 (11.879393923934 0 -11.879393923933998)
	arc 55 60 (11.879393923934 0 11.879393923933998)
	arc 60 45 (-11.879393923934 0 11.879393923933998)
	
	arc 46 51 (-8.485281374238571 106.5 -8.48528137423857)
	arc 51 56 (8.485281374238571 106.5 -8.48528137423857)
	arc 56 61 (8.485281374238571 106.5 8.48528137423857)
	arc 61 46 (-8.485281374238571 106.5 8.48528137423857)
	
	arc 47 52 (-8.485281374238571 130 -8.48528137423857)
	arc 52 57 (8.485281374238571 130 -8.48528137423857)
	arc 57 62 (8.485281374238571 130 8.48528137423857)
	arc 62 47 (-8.485281374238571 130 8.48528137423857)
	
	arc 48 53 (-2.121320343559643 106.5 -2.1213203435596424)
	arc 53 58 (2.121320343559643 106.5 -2.1213203435596424)
	arc 58 63 (2.121320343559643 106.5 2.1213203435596424)
	arc 63 48 (-2.121320343559643 106.5 2.1213203435596424)
	
	arc 64 65 (-14.707821048680188 100 -14.70782104868019)
	arc 65 66 (14.707821048680188 100 -14.70782104868019)
	arc 66 67 (14.707821048680188 100 14.70782104868019)
	arc 67 64 (-14.707821048680188 100 14.70782104868019)
	
	arc 68 69 (-8.485281374238571 100 -8.485281374238571)
	arc 69 70 (8.485281374238571 100 -8.485281374238571)
	arc 70 71 (8.485281374238571 100 8.485281374238571)
	arc 71 68 (-8.485281374238571 100 8.485281374238571)
	
);

boundary
(
    liner
    {
    	type wall;
    	faces
    	(
    	
    		(0 1 34 33)
    		(33 34 23 22)
    		(22 23 12 11)
    		(11 12 1 0)
    		
    		(1 34 35 2)
    		(34 23 24 35)
    		(23 12 13 24)
    		(12 1 2 13)
    		
    		(2 35 36 3)
    		(35 24 25 36)
    		(24 13 14 25)
    		(13 2 3 14)
    		
    		(3 36 67 64)
    		(36 25 66 67)
    		(25 14 65 66)
    		(14 3 64 65)
    		
    		(64 67 37 4)
    		(67 66 26 37)
    		(66 65 15 26)
    		(65 64 4 15)
    		
    		(4 37 38 5)
    		(37 26 27 38)
    		(26 15 16 27)
    		(15 4 5 16)
    	);
    	
    }
    
    cylinderHead
    {
    	type wall;
    	faces
    	(
    		
    		(48 63 39 6)
    		(63 58 28 39)
    		(58 53 17 28)
    		(53 48 6 17)
    		
    		(7 40 63 48)
    		(40 29 58 63)
    		(29 18 53 58)
    		(18 7 48 53)
    		
    		(8 41 40 7)
    		(41 30 29 40)
    		(30 19 18 29)
    		(19 8 7 18)
    		
    		(9 42 41 8)
    		(42 31 30 41)
    		(31 20 19 30)
    		(20 9 8 19)
    		
    		(10 43 42 9)
    		(43 32 31 42)
    		(32 21 20 31)
    		(21 10 9 20)
    		 
    		(76 79 78 77)
			(10 21 77 76) 
			(21 32 78 77) 
			(32 43 79 78) 
			(43 10 76 79)
    		
    		(5 38 62 47)
    		(38 27 57 62)
    		(27 16 52 57)
    		(16 5 47 52)
    		
    		(47 62 39 6)
    		(62 57 28 39)
    		(57 52 17 28)
    		(52 47 6 17)
    	);
    }
    
/*    outlet
    {
    	type patch;
    	faces
    	(
    		(5 38 62 47)
    		(38 27 57 62)
    		(27 16 52 57)
    		(16 5 47 52)
    		
    		(47 62 39 6)
    		(62 57 28 39)
    		(57 52 17 28)
    		(52 47 6 17)
    	);
    }
*/    
	piston
	{
		type wall;
		faces
		(
			
			(45 60 75 72)
			(60 55 74 75)
			(55 50 73 74)
			(50 45 72 73)
			(72 75 74 73)
			
			(49 44 45 50)
			(44 59 60 45)
			(59 54 55 60)
			(54 49 50 55)
			
			(11 0 44 49)
			(0 33 59 44)
			(33 22 54 59)
			(22 11 49 54)
		);
	}
	
);

mergePatchPairs
(
);

// ************************************************************************* //
