/*--------------------------------*- C++ -*----------------------------------*\
  =========                 |
  \\      /  F ield         | OpenFOAM: The Open Source CFD Toolbox
   \\    /   O peration     | Website:  https://openfoam.org
    \\  /    A nd           | Version:  7
     \\/     M anipulation  |
\*---------------------------------------------------------------------------*/
FoamFile
{
    version     2.0;
    format      ascii;
    class       polyBoundaryMesh;
    location    "constant/polyMesh";
    object      boundary;
}
// * * * * * * * * * * * * * * * * * * * * * * * * * * * * * * * * * * * * * //

3
(
    liner
    {
        type            wall;
        inGroups        List<word> 1(wall);
        nFaces          11448;
        startFace       983988;
    }
    cylinderHead
    {
        type            wall;
        inGroups        List<word> 1(wall);
        nFaces          10017;
        startFace       995436;
    }
    piston
    {
        type            wall;
        inGroups        List<word> 1(wall);
        nFaces          5589;
        startFace       1005453;
    }
)

// ************************************************************************* //
