/*--------------------------------*- C++ -*----------------------------------*\
  =========                 |
  \\      /  F ield         | OpenFOAM: The Open Source CFD Toolbox
   \\    /   O peration     | Website:  https://openfoam.org
    \\  /    A nd           | Version:  7
     \\/     M anipulation  |
\*---------------------------------------------------------------------------*/
FoamFile
{
    version     2.0;
    format      ascii;
    class       volScalarField;
    object      p;
}
// * * * * * * * * * * * * * * * * * * * * * * * * * * * * * * * * * * * * * //

#include        "include/initialConditions"

dimensions      [1 -1 -2 0 0 0 0];

internalField   uniform 101325;

boundaryField
{
    //- Set patchGroups for constraint patches
    #includeEtc "caseDicts/setConstraintTypes"

    inlet
    {
        type            fixedValue;
        value			$internalField;
    }

    outlet
    {
        type            fixedValue;
        value           $internalField;
    }

    lowerWall
    {
        type            zeroGradient;
    }
    
    upperWall
    {
    	type			zeroGradient;
    }

    v_gutter
    {
        type            zeroGradient;
    }

    #include "include/frontBackUpperPatches"
}

// ************************************************************************* //
